LAMMPS (29 Aug 2024 - Update 2)
# Specify basic aspects of the simulation.
units lj		# Units for quantities. (lj = reduced units)
atom_style bond	# What features does each atom have?
boundary p p p 		# Boundary conditions in each dimension.
pair_style lj/cut 2.5
read_data ../lammps-input/data/polymer_N200.data
Reading data file ...
  orthogonal box = (0 0 0) to (197.03 5 5)
  reading atoms ...
  200 atoms
  scanning bonds ...
  orthogonal box = (0 0 0) to (197.03 5 5)
  reading bonds ...
  199 bonds
Finding 1-2 1-3 1-4 neighbors ...
     2 = max # of 1-2 neighbors
     2 = max # of 1-3 neighbors
     4 = max # of 1-4 neighbors
     6 = max # of special neighbors
pair_modify shift yes
pair_coeff 1 1 1.0 1.0 2.5
bond_style harmonic
bond_coeff * 80.0 1.2

# Integration details,
mass 1 1.0
timestep 0.0025
fix ensFix all nvt temp 2.0 2.0 0.25
velocity all create 2.0 2024 dist gaussian
thermo 100
# Compute the RDF
comm_modify mode single cutoff 6
compute myRDF all rdf 100 cutoff 5.0
fix rdfAvgFix all ave/time 20 1 20 c_myRDF[*] ave running file N200T2.0-T2.0.rdf overwrite  mode vector

compute rg all gyration
fix rg_out all ave/time 100 1 100 c_rg file rg_N200T2.0.dat

compute msd all msd
fix msd_out all ave/time 100 1 100 c_msd[4] file msd_N200T2.0.dat

# the potential energy and pressure
variable myPE equal pe
variable myKE equal ke
variable myTE equal etotal
variable myPress equal press
variable myTemp equal temp
fix thAvgFix all ave/time 10 100 1000 v_myPE v_myKE v_myTE v_myPress v_myTemp file N200T2.0-T2.0-thermo.txt
dump myDump all atom 100 traj_N200T2.0.lammpstrj
#Production run
run 100000
Generated 0 of 0 mixed pair_coeff terms from geometric mixing rule
Step          Temp          E_pair         E_mol          TotEng         Press
0   2              0              4.21084        7.19584        0.56150529
Averages over the last 501 of 1001 rows, steps 50000 to 100000:
Temp E_pair E_mol TotEng Press
1.99952 -3.22301 0.988142 0.749425 0.000483052
Loop time of 30.4338 on 4 procs for 100000 steps with 200 atoms
